CM
CE
GW 1 9   -0.7035  -54.6400   +1.5180   -1.3526  -54.6400   +0.8689   +0.0120
GW 2 9   -0.7035  -54.6400   +1.5180   -1.3526  -54.4009   +0.8689   +0.0120
GW 3 9   -0.7035  -54.6400   +1.5180   -1.3526  -54.8791   +0.8689   +0.0120
GW 4 2   -1.3526  -54.6400   +0.8689   -1.3526  -54.4009   +0.8689   +0.0120
GW 5 2   -1.3526  -54.6400   +0.8689   -1.3526  -54.8791   +0.8689   +0.0120
GW 6 5   -1.3526  -54.6400   +0.8689   -1.7104  -54.6400   +0.5111   +0.0120
GW 7 5   -1.3526  -54.4009   +0.8689   -1.7104  -54.2691   +0.5111   +0.0120
GW 8 5   -1.3526  -54.8791   +0.8689   -1.7104  -55.0109   +0.5111   +0.0120
GW 9 3   -1.7104  -54.6400   +0.5111   -1.7104  -54.2691   +0.5111   +0.0120
GW 10 3   -1.7104  -54.6400   +0.5111   -1.7104  -55.0109   +0.5111   +0.0120
GW 11 9   -0.5765  -54.6400   +1.5180   +0.0726  -54.6400   +0.8689   +0.0120
GW 12 9   -0.5765  -54.6400   +1.5180   +0.0726  -54.4009   +0.8689   +0.0120
GW 13 9   -0.5765  -54.6400   +1.5180   +0.0726  -54.8791   +0.8689   +0.0120
GW 14 2   +0.0726  -54.6400   +0.8689   +0.0726  -54.4009   +0.8689   +0.0120
GW 15 2   +0.0726  -54.6400   +0.8689   +0.0726  -54.8791   +0.8689   +0.0120
GW 16 5   +0.0726  -54.6400   +0.8689   +0.4304  -54.6400   +0.5111   +0.0120
GW 17 5   +0.0726  -54.4009   +0.8689   +0.4304  -54.2691   +0.5111   +0.0120
GW 18 5   +0.0726  -54.8791   +0.8689   +0.4304  -55.0109   +0.5111   +0.0120
GW 19 3   +0.4304  -54.6400   +0.5111   +0.4304  -54.2691   +0.5111   +0.0120
GW 20 3   +0.4304  -54.6400   +0.5111   +0.4304  -55.0109   +0.5111   +0.0120
GW 21 3   -0.7035  -54.6400   +1.5180   -0.5765  -54.6400   +1.5180   +0.0120
GW 22 9   -0.6400  -54.5765   +1.4820   -0.6400  -53.9274   +0.8329   +0.0120
GW 23 9   -0.6400  -54.5765   +1.4820   -0.4009  -53.9274   +0.8329   +0.0120
GW 24 9   -0.6400  -54.5765   +1.4820   -0.8791  -53.9274   +0.8329   +0.0120
GW 25 2   -0.6400  -53.9274   +0.8329   -0.4009  -53.9274   +0.8329   +0.0120
GW 26 2   -0.6400  -53.9274   +0.8329   -0.8791  -53.9274   +0.8329   +0.0120
GW 27 5   -0.6400  -53.9274   +0.8329   -0.6400  -53.5696   +0.4751   +0.0120
GW 28 5   -0.4009  -53.9274   +0.8329   -0.2691  -53.5696   +0.4751   +0.0120
GW 29 5   -0.8791  -53.9274   +0.8329   -1.0109  -53.5696   +0.4751   +0.0120
GW 30 3   -0.6400  -53.5696   +0.4751   -0.2691  -53.5696   +0.4751   +0.0120
GW 31 3   -0.6400  -53.5696   +0.4751   -1.0109  -53.5696   +0.4751   +0.0120
GW 32 9   -0.6400  -54.7035   +1.4820   -0.6400  -55.3526   +0.8329   +0.0120
GW 33 9   -0.6400  -54.7035   +1.4820   -0.4009  -55.3526   +0.8329   +0.0120
GW 34 9   -0.6400  -54.7035   +1.4820   -0.8791  -55.3526   +0.8329   +0.0120
GW 35 2   -0.6400  -55.3526   +0.8329   -0.4009  -55.3526   +0.8329   +0.0120
GW 36 2   -0.6400  -55.3526   +0.8329   -0.8791  -55.3526   +0.8329   +0.0120
GW 37 5   -0.6400  -55.3526   +0.8329   -0.6400  -55.7104   +0.4751   +0.0120
GW 38 5   -0.4009  -55.3526   +0.8329   -0.2691  -55.7104   +0.4751   +0.0120
GW 39 5   -0.8791  -55.3526   +0.8329   -1.0109  -55.7104   +0.4751   +0.0120
GW 40 3   -0.6400  -55.7104   +0.4751   -0.2691  -55.7104   +0.4751   +0.0120
GW 41 3   -0.6400  -55.7104   +0.4751   -1.0109  -55.7104   +0.4751   +0.0120
GW 42 3   -0.6400  -54.5765   +1.4820   -0.6400  -54.7035   +1.4820   +0.0120
GW 43 1   -2.1400  -56.1400   +0.0100   -2.0400  -56.1400   +0.0100   +0.0010
GW 44 1   -2.1400  -56.0400   +0.0100   -2.0400  -56.0400   +0.0100   +0.0010
GW 45 1   -2.1400  -55.9400   +0.0100   -2.0400  -55.9400   +0.0100   +0.0010
GW 46 1   -2.1400  -55.8400   +0.0100   -2.0400  -55.8400   +0.0100   +0.0010
GW 47 1   -2.1400  -55.7400   +0.0100   -2.0400  -55.7400   +0.0100   +0.0010
GW 48 1   -2.1400  -55.6400   +0.0100   -2.0400  -55.6400   +0.0100   +0.0010
GW 49 1   -2.1400  -55.5400   +0.0100   -2.0400  -55.5400   +0.0100   +0.0010
GW 50 1   -2.1400  -55.4400   +0.0100   -2.0400  -55.4400   +0.0100   +0.0010
GW 51 1   -2.1400  -55.3400   +0.0100   -2.0400  -55.3400   +0.0100   +0.0010
GW 52 1   -2.1400  -55.2400   +0.0100   -2.0400  -55.2400   +0.0100   +0.0010
GW 53 1   -2.1400  -55.1400   +0.0100   -2.0400  -55.1400   +0.0100   +0.0010
GW 54 1   -2.1400  -55.0400   +0.0100   -2.0400  -55.0400   +0.0100   +0.0010
GW 55 1   -2.1400  -54.9400   +0.0100   -2.0400  -54.9400   +0.0100   +0.0010
GW 56 1   -2.1400  -54.8400   +0.0100   -2.0400  -54.8400   +0.0100   +0.0010
GW 57 1   -2.1400  -54.7400   +0.0100   -2.0400  -54.7400   +0.0100   +0.0010
GW 58 1   -2.1400  -54.6400   +0.0100   -2.0400  -54.6400   +0.0100   +0.0010
GW 59 1   -2.1400  -54.5400   +0.0100   -2.0400  -54.5400   +0.0100   +0.0010
GW 60 1   -2.1400  -54.4400   +0.0100   -2.0400  -54.4400   +0.0100   +0.0010
GW 61 1   -2.1400  -54.3400   +0.0100   -2.0400  -54.3400   +0.0100   +0.0010
GW 62 1   -2.1400  -54.2400   +0.0100   -2.0400  -54.2400   +0.0100   +0.0010
GW 63 1   -2.1400  -54.1400   +0.0100   -2.0400  -54.1400   +0.0100   +0.0010
GW 64 1   -2.1400  -54.0400   +0.0100   -2.0400  -54.0400   +0.0100   +0.0010
GW 65 1   -2.1400  -53.9400   +0.0100   -2.0400  -53.9400   +0.0100   +0.0010
GW 66 1   -2.1400  -53.8400   +0.0100   -2.0400  -53.8400   +0.0100   +0.0010
GW 67 1   -2.1400  -53.7400   +0.0100   -2.0400  -53.7400   +0.0100   +0.0010
GW 68 1   -2.1400  -53.6400   +0.0100   -2.0400  -53.6400   +0.0100   +0.0010
GW 69 1   -2.1400  -53.5400   +0.0100   -2.0400  -53.5400   +0.0100   +0.0010
GW 70 1   -2.1400  -53.4400   +0.0100   -2.0400  -53.4400   +0.0100   +0.0010
GW 71 1   -2.1400  -53.3400   +0.0100   -2.0400  -53.3400   +0.0100   +0.0010
GW 72 1   -2.1400  -53.2400   +0.0100   -2.0400  -53.2400   +0.0100   +0.0010
GW 73 1   -2.1400  -53.1400   +0.0100   -2.0400  -53.1400   +0.0100   +0.0010
GW 74 1   -2.0400  -56.1400   +0.0100   -1.9400  -56.1400   +0.0100   +0.0010
GW 75 1   -2.0400  -56.0400   +0.0100   -1.9400  -56.0400   +0.0100   +0.0010
GW 76 1   -2.0400  -55.9400   +0.0100   -1.9400  -55.9400   +0.0100   +0.0010
GW 77 1   -2.0400  -55.8400   +0.0100   -1.9400  -55.8400   +0.0100   +0.0010
GW 78 1   -2.0400  -55.7400   +0.0100   -1.9400  -55.7400   +0.0100   +0.0010
GW 79 1   -2.0400  -55.6400   +0.0100   -1.9400  -55.6400   +0.0100   +0.0010
GW 80 1   -2.0400  -55.5400   +0.0100   -1.9400  -55.5400   +0.0100   +0.0010
GW 81 1   -2.0400  -55.4400   +0.0100   -1.9400  -55.4400   +0.0100   +0.0010
GW 82 1   -2.0400  -55.3400   +0.0100   -1.9400  -55.3400   +0.0100   +0.0010
GW 83 1   -2.0400  -55.2400   +0.0100   -1.9400  -55.2400   +0.0100   +0.0010
GW 84 1   -2.0400  -55.1400   +0.0100   -1.9400  -55.1400   +0.0100   +0.0010
GW 85 1   -2.0400  -55.0400   +0.0100   -1.9400  -55.0400   +0.0100   +0.0010
GW 86 1   -2.0400  -54.9400   +0.0100   -1.9400  -54.9400   +0.0100   +0.0010
GW 87 1   -2.0400  -54.8400   +0.0100   -1.9400  -54.8400   +0.0100   +0.0010
GW 88 1   -2.0400  -54.7400   +0.0100   -1.9400  -54.7400   +0.0100   +0.0010
GW 89 1   -2.0400  -54.6400   +0.0100   -1.9400  -54.6400   +0.0100   +0.0010
GW 90 1   -2.0400  -54.5400   +0.0100   -1.9400  -54.5400   +0.0100   +0.0010
GW 91 1   -2.0400  -54.4400   +0.0100   -1.9400  -54.4400   +0.0100   +0.0010
GW 92 1   -2.0400  -54.3400   +0.0100   -1.9400  -54.3400   +0.0100   +0.0010
GW 93 1   -2.0400  -54.2400   +0.0100   -1.9400  -54.2400   +0.0100   +0.0010
GW 94 1   -2.0400  -54.1400   +0.0100   -1.9400  -54.1400   +0.0100   +0.0010
GW 95 1   -2.0400  -54.0400   +0.0100   -1.9400  -54.0400   +0.0100   +0.0010
GW 96 1   -2.0400  -53.9400   +0.0100   -1.9400  -53.9400   +0.0100   +0.0010
GW 97 1   -2.0400  -53.8400   +0.0100   -1.9400  -53.8400   +0.0100   +0.0010
GW 98 1   -2.0400  -53.7400   +0.0100   -1.9400  -53.7400   +0.0100   +0.0010
GW 99 1   -2.0400  -53.6400   +0.0100   -1.9400  -53.6400   +0.0100   +0.0010
GW 100 1   -2.0400  -53.5400   +0.0100   -1.9400  -53.5400   +0.0100   +0.0010
GW 101 1   -2.0400  -53.4400   +0.0100   -1.9400  -53.4400   +0.0100   +0.0010
GW 102 1   -2.0400  -53.3400   +0.0100   -1.9400  -53.3400   +0.0100   +0.0010
GW 103 1   -2.0400  -53.2400   +0.0100   -1.9400  -53.2400   +0.0100   +0.0010
GW 104 1   -2.0400  -53.1400   +0.0100   -1.9400  -53.1400   +0.0100   +0.0010
GW 105 1   -1.9400  -56.1400   +0.0100   -1.8400  -56.1400   +0.0100   +0.0010
GW 106 1   -1.9400  -56.0400   +0.0100   -1.8400  -56.0400   +0.0100   +0.0010
GW 107 1   -1.9400  -55.9400   +0.0100   -1.8400  -55.9400   +0.0100   +0.0010
GW 108 1   -1.9400  -55.8400   +0.0100   -1.8400  -55.8400   +0.0100   +0.0010
GW 109 1   -1.9400  -55.7400   +0.0100   -1.8400  -55.7400   +0.0100   +0.0010
GW 110 1   -1.9400  -55.6400   +0.0100   -1.8400  -55.6400   +0.0100   +0.0010
GW 111 1   -1.9400  -55.5400   +0.0100   -1.8400  -55.5400   +0.0100   +0.0010
GW 112 1   -1.9400  -55.4400   +0.0100   -1.8400  -55.4400   +0.0100   +0.0010
GW 113 1   -1.9400  -55.3400   +0.0100   -1.8400  -55.3400   +0.0100   +0.0010
GW 114 1   -1.9400  -55.2400   +0.0100   -1.8400  -55.2400   +0.0100   +0.0010
GW 115 1   -1.9400  -55.1400   +0.0100   -1.8400  -55.1400   +0.0100   +0.0010
GW 116 1   -1.9400  -55.0400   +0.0100   -1.8400  -55.0400   +0.0100   +0.0010
GW 117 1   -1.9400  -54.9400   +0.0100   -1.8400  -54.9400   +0.0100   +0.0010
GW 118 1   -1.9400  -54.8400   +0.0100   -1.8400  -54.8400   +0.0100   +0.0010
GW 119 1   -1.9400  -54.7400   +0.0100   -1.8400  -54.7400   +0.0100   +0.0010
GW 120 1   -1.9400  -54.6400   +0.0100   -1.8400  -54.6400   +0.0100   +0.0010
GW 121 1   -1.9400  -54.5400   +0.0100   -1.8400  -54.5400   +0.0100   +0.0010
GW 122 1   -1.9400  -54.4400   +0.0100   -1.8400  -54.4400   +0.0100   +0.0010
GW 123 1   -1.9400  -54.3400   +0.0100   -1.8400  -54.3400   +0.0100   +0.0010
GW 124 1   -1.9400  -54.2400   +0.0100   -1.8400  -54.2400   +0.0100   +0.0010
GW 125 1   -1.9400  -54.1400   +0.0100   -1.8400  -54.1400   +0.0100   +0.0010
GW 126 1   -1.9400  -54.0400   +0.0100   -1.8400  -54.0400   +0.0100   +0.0010
GW 127 1   -1.9400  -53.9400   +0.0100   -1.8400  -53.9400   +0.0100   +0.0010
GW 128 1   -1.9400  -53.8400   +0.0100   -1.8400  -53.8400   +0.0100   +0.0010
GW 129 1   -1.9400  -53.7400   +0.0100   -1.8400  -53.7400   +0.0100   +0.0010
GW 130 1   -1.9400  -53.6400   +0.0100   -1.8400  -53.6400   +0.0100   +0.0010
GW 131 1   -1.9400  -53.5400   +0.0100   -1.8400  -53.5400   +0.0100   +0.0010
GW 132 1   -1.9400  -53.4400   +0.0100   -1.8400  -53.4400   +0.0100   +0.0010
GW 133 1   -1.9400  -53.3400   +0.0100   -1.8400  -53.3400   +0.0100   +0.0010
GW 134 1   -1.9400  -53.2400   +0.0100   -1.8400  -53.2400   +0.0100   +0.0010
GW 135 1   -1.9400  -53.1400   +0.0100   -1.8400  -53.1400   +0.0100   +0.0010
GW 136 1   -1.8400  -56.1400   +0.0100   -1.7400  -56.1400   +0.0100   +0.0010
GW 137 1   -1.8400  -56.0400   +0.0100   -1.7400  -56.0400   +0.0100   +0.0010
GW 138 1   -1.8400  -55.9400   +0.0100   -1.7400  -55.9400   +0.0100   +0.0010
GW 139 1   -1.8400  -55.8400   +0.0100   -1.7400  -55.8400   +0.0100   +0.0010
GW 140 1   -1.8400  -55.7400   +0.0100   -1.7400  -55.7400   +0.0100   +0.0010
GW 141 1   -1.8400  -55.6400   +0.0100   -1.7400  -55.6400   +0.0100   +0.0010
GW 142 1   -1.8400  -55.5400   +0.0100   -1.7400  -55.5400   +0.0100   +0.0010
GW 143 1   -1.8400  -55.4400   +0.0100   -1.7400  -55.4400   +0.0100   +0.0010
GW 144 1   -1.8400  -55.3400   +0.0100   -1.7400  -55.3400   +0.0100   +0.0010
GW 145 1   -1.8400  -55.2400   +0.0100   -1.7400  -55.2400   +0.0100   +0.0010
GW 146 1   -1.8400  -55.1400   +0.0100   -1.7400  -55.1400   +0.0100   +0.0010
GW 147 1   -1.8400  -55.0400   +0.0100   -1.7400  -55.0400   +0.0100   +0.0010
GW 148 1   -1.8400  -54.9400   +0.0100   -1.7400  -54.9400   +0.0100   +0.0010
GW 149 1   -1.8400  -54.8400   +0.0100   -1.7400  -54.8400   +0.0100   +0.0010
GW 150 1   -1.8400  -54.7400   +0.0100   -1.7400  -54.7400   +0.0100   +0.0010
GW 151 1   -1.8400  -54.6400   +0.0100   -1.7400  -54.6400   +0.0100   +0.0010
GW 152 1   -1.8400  -54.5400   +0.0100   -1.7400  -54.5400   +0.0100   +0.0010
GW 153 1   -1.8400  -54.4400   +0.0100   -1.7400  -54.4400   +0.0100   +0.0010
GW 154 1   -1.8400  -54.3400   +0.0100   -1.7400  -54.3400   +0.0100   +0.0010
GW 155 1   -1.8400  -54.2400   +0.0100   -1.7400  -54.2400   +0.0100   +0.0010
GW 156 1   -1.8400  -54.1400   +0.0100   -1.7400  -54.1400   +0.0100   +0.0010
GW 157 1   -1.8400  -54.0400   +0.0100   -1.7400  -54.0400   +0.0100   +0.0010
GW 158 1   -1.8400  -53.9400   +0.0100   -1.7400  -53.9400   +0.0100   +0.0010
GW 159 1   -1.8400  -53.8400   +0.0100   -1.7400  -53.8400   +0.0100   +0.0010
GW 160 1   -1.8400  -53.7400   +0.0100   -1.7400  -53.7400   +0.0100   +0.0010
GW 161 1   -1.8400  -53.6400   +0.0100   -1.7400  -53.6400   +0.0100   +0.0010
GW 162 1   -1.8400  -53.5400   +0.0100   -1.7400  -53.5400   +0.0100   +0.0010
GW 163 1   -1.8400  -53.4400   +0.0100   -1.7400  -53.4400   +0.0100   +0.0010
GW 164 1   -1.8400  -53.3400   +0.0100   -1.7400  -53.3400   +0.0100   +0.0010
GW 165 1   -1.8400  -53.2400   +0.0100   -1.7400  -53.2400   +0.0100   +0.0010
GW 166 1   -1.8400  -53.1400   +0.0100   -1.7400  -53.1400   +0.0100   +0.0010
GW 167 1   -1.7400  -56.1400   +0.0100   -1.6400  -56.1400   +0.0100   +0.0010
GW 168 1   -1.7400  -56.0400   +0.0100   -1.6400  -56.0400   +0.0100   +0.0010
GW 169 1   -1.7400  -55.9400   +0.0100   -1.6400  -55.9400   +0.0100   +0.0010
GW 170 1   -1.7400  -55.8400   +0.0100   -1.6400  -55.8400   +0.0100   +0.0010
GW 171 1   -1.7400  -55.7400   +0.0100   -1.6400  -55.7400   +0.0100   +0.0010
GW 172 1   -1.7400  -55.6400   +0.0100   -1.6400  -55.6400   +0.0100   +0.0010
GW 173 1   -1.7400  -55.5400   +0.0100   -1.6400  -55.5400   +0.0100   +0.0010
GW 174 1   -1.7400  -55.4400   +0.0100   -1.6400  -55.4400   +0.0100   +0.0010
GW 175 1   -1.7400  -55.3400   +0.0100   -1.6400  -55.3400   +0.0100   +0.0010
GW 176 1   -1.7400  -55.2400   +0.0100   -1.6400  -55.2400   +0.0100   +0.0010
GW 177 1   -1.7400  -55.1400   +0.0100   -1.6400  -55.1400   +0.0100   +0.0010
GW 178 1   -1.7400  -55.0400   +0.0100   -1.6400  -55.0400   +0.0100   +0.0010
GW 179 1   -1.7400  -54.9400   +0.0100   -1.6400  -54.9400   +0.0100   +0.0010
GW 180 1   -1.7400  -54.8400   +0.0100   -1.6400  -54.8400   +0.0100   +0.0010
GW 181 1   -1.7400  -54.7400   +0.0100   -1.6400  -54.7400   +0.0100   +0.0010
GW 182 1   -1.7400  -54.6400   +0.0100   -1.6400  -54.6400   +0.0100   +0.0010
GW 183 1   -1.7400  -54.5400   +0.0100   -1.6400  -54.5400   +0.0100   +0.0010
GW 184 1   -1.7400  -54.4400   +0.0100   -1.6400  -54.4400   +0.0100   +0.0010
GW 185 1   -1.7400  -54.3400   +0.0100   -1.6400  -54.3400   +0.0100   +0.0010
GW 186 1   -1.7400  -54.2400   +0.0100   -1.6400  -54.2400   +0.0100   +0.0010
GW 187 1   -1.7400  -54.1400   +0.0100   -1.6400  -54.1400   +0.0100   +0.0010
GW 188 1   -1.7400  -54.0400   +0.0100   -1.6400  -54.0400   +0.0100   +0.0010
GW 189 1   -1.7400  -53.9400   +0.0100   -1.6400  -53.9400   +0.0100   +0.0010
GW 190 1   -1.7400  -53.8400   +0.0100   -1.6400  -53.8400   +0.0100   +0.0010
GW 191 1   -1.7400  -53.7400   +0.0100   -1.6400  -53.7400   +0.0100   +0.0010
GW 192 1   -1.7400  -53.6400   +0.0100   -1.6400  -53.6400   +0.0100   +0.0010
GW 193 1   -1.7400  -53.5400   +0.0100   -1.6400  -53.5400   +0.0100   +0.0010
GW 194 1   -1.7400  -53.4400   +0.0100   -1.6400  -53.4400   +0.0100   +0.0010
GW 195 1   -1.7400  -53.3400   +0.0100   -1.6400  -53.3400   +0.0100   +0.0010
GW 196 1   -1.7400  -53.2400   +0.0100   -1.6400  -53.2400   +0.0100   +0.0010
GW 197 1   -1.7400  -53.1400   +0.0100   -1.6400  -53.1400   +0.0100   +0.0010
GW 198 1   -1.6400  -56.1400   +0.0100   -1.5400  -56.1400   +0.0100   +0.0010
GW 199 1   -1.6400  -56.0400   +0.0100   -1.5400  -56.0400   +0.0100   +0.0010
GW 200 1   -1.6400  -55.9400   +0.0100   -1.5400  -55.9400   +0.0100   +0.0010
GW 201 1   -1.6400  -55.8400   +0.0100   -1.5400  -55.8400   +0.0100   +0.0010
GW 202 1   -1.6400  -55.7400   +0.0100   -1.5400  -55.7400   +0.0100   +0.0010
GW 203 1   -1.6400  -55.6400   +0.0100   -1.5400  -55.6400   +0.0100   +0.0010
GW 204 1   -1.6400  -55.5400   +0.0100   -1.5400  -55.5400   +0.0100   +0.0010
GW 205 1   -1.6400  -55.4400   +0.0100   -1.5400  -55.4400   +0.0100   +0.0010
GW 206 1   -1.6400  -55.3400   +0.0100   -1.5400  -55.3400   +0.0100   +0.0010
GW 207 1   -1.6400  -55.2400   +0.0100   -1.5400  -55.2400   +0.0100   +0.0010
GW 208 1   -1.6400  -55.1400   +0.0100   -1.5400  -55.1400   +0.0100   +0.0010
GW 209 1   -1.6400  -55.0400   +0.0100   -1.5400  -55.0400   +0.0100   +0.0010
GW 210 1   -1.6400  -54.9400   +0.0100   -1.5400  -54.9400   +0.0100   +0.0010
GW 211 1   -1.6400  -54.8400   +0.0100   -1.5400  -54.8400   +0.0100   +0.0010
GW 212 1   -1.6400  -54.7400   +0.0100   -1.5400  -54.7400   +0.0100   +0.0010
GW 213 1   -1.6400  -54.6400   +0.0100   -1.5400  -54.6400   +0.0100   +0.0010
GW 214 1   -1.6400  -54.5400   +0.0100   -1.5400  -54.5400   +0.0100   +0.0010
GW 215 1   -1.6400  -54.4400   +0.0100   -1.5400  -54.4400   +0.0100   +0.0010
GW 216 1   -1.6400  -54.3400   +0.0100   -1.5400  -54.3400   +0.0100   +0.0010
GW 217 1   -1.6400  -54.2400   +0.0100   -1.5400  -54.2400   +0.0100   +0.0010
GW 218 1   -1.6400  -54.1400   +0.0100   -1.5400  -54.1400   +0.0100   +0.0010
GW 219 1   -1.6400  -54.0400   +0.0100   -1.5400  -54.0400   +0.0100   +0.0010
GW 220 1   -1.6400  -53.9400   +0.0100   -1.5400  -53.9400   +0.0100   +0.0010
GW 221 1   -1.6400  -53.8400   +0.0100   -1.5400  -53.8400   +0.0100   +0.0010
GW 222 1   -1.6400  -53.7400   +0.0100   -1.5400  -53.7400   +0.0100   +0.0010
GW 223 1   -1.6400  -53.6400   +0.0100   -1.5400  -53.6400   +0.0100   +0.0010
GW 224 1   -1.6400  -53.5400   +0.0100   -1.5400  -53.5400   +0.0100   +0.0010
GW 225 1   -1.6400  -53.4400   +0.0100   -1.5400  -53.4400   +0.0100   +0.0010
GW 226 1   -1.6400  -53.3400   +0.0100   -1.5400  -53.3400   +0.0100   +0.0010
GW 227 1   -1.6400  -53.2400   +0.0100   -1.5400  -53.2400   +0.0100   +0.0010
GW 228 1   -1.6400  -53.1400   +0.0100   -1.5400  -53.1400   +0.0100   +0.0010
GW 229 1   -1.5400  -56.1400   +0.0100   -1.4400  -56.1400   +0.0100   +0.0010
GW 230 1   -1.5400  -56.0400   +0.0100   -1.4400  -56.0400   +0.0100   +0.0010
GW 231 1   -1.5400  -55.9400   +0.0100   -1.4400  -55.9400   +0.0100   +0.0010
GW 232 1   -1.5400  -55.8400   +0.0100   -1.4400  -55.8400   +0.0100   +0.0010
GW 233 1   -1.5400  -55.7400   +0.0100   -1.4400  -55.7400   +0.0100   +0.0010
GW 234 1   -1.5400  -55.6400   +0.0100   -1.4400  -55.6400   +0.0100   +0.0010
GW 235 1   -1.5400  -55.5400   +0.0100   -1.4400  -55.5400   +0.0100   +0.0010
GW 236 1   -1.5400  -55.4400   +0.0100   -1.4400  -55.4400   +0.0100   +0.0010
GW 237 1   -1.5400  -55.3400   +0.0100   -1.4400  -55.3400   +0.0100   +0.0010
GW 238 1   -1.5400  -55.2400   +0.0100   -1.4400  -55.2400   +0.0100   +0.0010
GW 239 1   -1.5400  -55.1400   +0.0100   -1.4400  -55.1400   +0.0100   +0.0010
GW 240 1   -1.5400  -55.0400   +0.0100   -1.4400  -55.0400   +0.0100   +0.0010
GW 241 1   -1.5400  -54.9400   +0.0100   -1.4400  -54.9400   +0.0100   +0.0010
GW 242 1   -1.5400  -54.8400   +0.0100   -1.4400  -54.8400   +0.0100   +0.0010
GW 243 1   -1.5400  -54.7400   +0.0100   -1.4400  -54.7400   +0.0100   +0.0010
GW 244 1   -1.5400  -54.6400   +0.0100   -1.4400  -54.6400   +0.0100   +0.0010
GW 245 1   -1.5400  -54.5400   +0.0100   -1.4400  -54.5400   +0.0100   +0.0010
GW 246 1   -1.5400  -54.4400   +0.0100   -1.4400  -54.4400   +0.0100   +0.0010
GW 247 1   -1.5400  -54.3400   +0.0100   -1.4400  -54.3400   +0.0100   +0.0010
GW 248 1   -1.5400  -54.2400   +0.0100   -1.4400  -54.2400   +0.0100   +0.0010
GW 249 1   -1.5400  -54.1400   +0.0100   -1.4400  -54.1400   +0.0100   +0.0010
GW 250 1   -1.5400  -54.0400   +0.0100   -1.4400  -54.0400   +0.0100   +0.0010
GW 251 1   -1.5400  -53.9400   +0.0100   -1.4400  -53.9400   +0.0100   +0.0010
GW 252 1   -1.5400  -53.8400   +0.0100   -1.4400  -53.8400   +0.0100   +0.0010
GW 253 1   -1.5400  -53.7400   +0.0100   -1.4400  -53.7400   +0.0100   +0.0010
GW 254 1   -1.5400  -53.6400   +0.0100   -1.4400  -53.6400   +0.0100   +0.0010
GW 255 1   -1.5400  -53.5400   +0.0100   -1.4400  -53.5400   +0.0100   +0.0010
GW 256 1   -1.5400  -53.4400   +0.0100   -1.4400  -53.4400   +0.0100   +0.0010
GW 257 1   -1.5400  -53.3400   +0.0100   -1.4400  -53.3400   +0.0100   +0.0010
GW 258 1   -1.5400  -53.2400   +0.0100   -1.4400  -53.2400   +0.0100   +0.0010
GW 259 1   -1.5400  -53.1400   +0.0100   -1.4400  -53.1400   +0.0100   +0.0010
GW 260 1   -1.4400  -56.1400   +0.0100   -1.3400  -56.1400   +0.0100   +0.0010
GW 261 1   -1.4400  -56.0400   +0.0100   -1.3400  -56.0400   +0.0100   +0.0010
GW 262 1   -1.4400  -55.9400   +0.0100   -1.3400  -55.9400   +0.0100   +0.0010
GW 263 1   -1.4400  -55.8400   +0.0100   -1.3400  -55.8400   +0.0100   +0.0010
GW 264 1   -1.4400  -55.7400   +0.0100   -1.3400  -55.7400   +0.0100   +0.0010
GW 265 1   -1.4400  -55.6400   +0.0100   -1.3400  -55.6400   +0.0100   +0.0010
GW 266 1   -1.4400  -55.5400   +0.0100   -1.3400  -55.5400   +0.0100   +0.0010
GW 267 1   -1.4400  -55.4400   +0.0100   -1.3400  -55.4400   +0.0100   +0.0010
GW 268 1   -1.4400  -55.3400   +0.0100   -1.3400  -55.3400   +0.0100   +0.0010
GW 269 1   -1.4400  -55.2400   +0.0100   -1.3400  -55.2400   +0.0100   +0.0010
GW 270 1   -1.4400  -55.1400   +0.0100   -1.3400  -55.1400   +0.0100   +0.0010
GW 271 1   -1.4400  -55.0400   +0.0100   -1.3400  -55.0400   +0.0100   +0.0010
GW 272 1   -1.4400  -54.9400   +0.0100   -1.3400  -54.9400   +0.0100   +0.0010
GW 273 1   -1.4400  -54.8400   +0.0100   -1.3400  -54.8400   +0.0100   +0.0010
GW 274 1   -1.4400  -54.7400   +0.0100   -1.3400  -54.7400   +0.0100   +0.0010
GW 275 1   -1.4400  -54.6400   +0.0100   -1.3400  -54.6400   +0.0100   +0.0010
GW 276 1   -1.4400  -54.5400   +0.0100   -1.3400  -54.5400   +0.0100   +0.0010
GW 277 1   -1.4400  -54.4400   +0.0100   -1.3400  -54.4400   +0.0100   +0.0010
GW 278 1   -1.4400  -54.3400   +0.0100   -1.3400  -54.3400   +0.0100   +0.0010
GW 279 1   -1.4400  -54.2400   +0.0100   -1.3400  -54.2400   +0.0100   +0.0010
GW 280 1   -1.4400  -54.1400   +0.0100   -1.3400  -54.1400   +0.0100   +0.0010
GW 281 1   -1.4400  -54.0400   +0.0100   -1.3400  -54.0400   +0.0100   +0.0010
GW 282 1   -1.4400  -53.9400   +0.0100   -1.3400  -53.9400   +0.0100   +0.0010
GW 283 1   -1.4400  -53.8400   +0.0100   -1.3400  -53.8400   +0.0100   +0.0010
GW 284 1   -1.4400  -53.7400   +0.0100   -1.3400  -53.7400   +0.0100   +0.0010
GW 285 1   -1.4400  -53.6400   +0.0100   -1.3400  -53.6400   +0.0100   +0.0010
GW 286 1   -1.4400  -53.5400   +0.0100   -1.3400  -53.5400   +0.0100   +0.0010
GW 287 1   -1.4400  -53.4400   +0.0100   -1.3400  -53.4400   +0.0100   +0.0010
GW 288 1   -1.4400  -53.3400   +0.0100   -1.3400  -53.3400   +0.0100   +0.0010
GW 289 1   -1.4400  -53.2400   +0.0100   -1.3400  -53.2400   +0.0100   +0.0010
GW 290 1   -1.4400  -53.1400   +0.0100   -1.3400  -53.1400   +0.0100   +0.0010
GW 291 1   -1.3400  -56.1400   +0.0100   -1.2400  -56.1400   +0.0100   +0.0010
GW 292 1   -1.3400  -56.0400   +0.0100   -1.2400  -56.0400   +0.0100   +0.0010
GW 293 1   -1.3400  -55.9400   +0.0100   -1.2400  -55.9400   +0.0100   +0.0010
GW 294 1   -1.3400  -55.8400   +0.0100   -1.2400  -55.8400   +0.0100   +0.0010
GW 295 1   -1.3400  -55.7400   +0.0100   -1.2400  -55.7400   +0.0100   +0.0010
GW 296 1   -1.3400  -55.6400   +0.0100   -1.2400  -55.6400   +0.0100   +0.0010
GW 297 1   -1.3400  -55.5400   +0.0100   -1.2400  -55.5400   +0.0100   +0.0010
GW 298 1   -1.3400  -55.4400   +0.0100   -1.2400  -55.4400   +0.0100   +0.0010
GW 299 1   -1.3400  -55.3400   +0.0100   -1.2400  -55.3400   +0.0100   +0.0010
GW 300 1   -1.3400  -55.2400   +0.0100   -1.2400  -55.2400   +0.0100   +0.0010
GW 301 1   -1.3400  -55.1400   +0.0100   -1.2400  -55.1400   +0.0100   +0.0010
GW 302 1   -1.3400  -55.0400   +0.0100   -1.2400  -55.0400   +0.0100   +0.0010
GW 303 1   -1.3400  -54.9400   +0.0100   -1.2400  -54.9400   +0.0100   +0.0010
GW 304 1   -1.3400  -54.8400   +0.0100   -1.2400  -54.8400   +0.0100   +0.0010
GW 305 1   -1.3400  -54.7400   +0.0100   -1.2400  -54.7400   +0.0100   +0.0010
GW 306 1   -1.3400  -54.6400   +0.0100   -1.2400  -54.6400   +0.0100   +0.0010
GW 307 1   -1.3400  -54.5400   +0.0100   -1.2400  -54.5400   +0.0100   +0.0010
GW 308 1   -1.3400  -54.4400   +0.0100   -1.2400  -54.4400   +0.0100   +0.0010
GW 309 1   -1.3400  -54.3400   +0.0100   -1.2400  -54.3400   +0.0100   +0.0010
GW 310 1   -1.3400  -54.2400   +0.0100   -1.2400  -54.2400   +0.0100   +0.0010
GW 311 1   -1.3400  -54.1400   +0.0100   -1.2400  -54.1400   +0.0100   +0.0010
GW 312 1   -1.3400  -54.0400   +0.0100   -1.2400  -54.0400   +0.0100   +0.0010
GW 313 1   -1.3400  -53.9400   +0.0100   -1.2400  -53.9400   +0.0100   +0.0010
GW 314 1   -1.3400  -53.8400   +0.0100   -1.2400  -53.8400   +0.0100   +0.0010
GW 315 1   -1.3400  -53.7400   +0.0100   -1.2400  -53.7400   +0.0100   +0.0010
GW 316 1   -1.3400  -53.6400   +0.0100   -1.2400  -53.6400   +0.0100   +0.0010
GW 317 1   -1.3400  -53.5400   +0.0100   -1.2400  -53.5400   +0.0100   +0.0010
GW 318 1   -1.3400  -53.4400   +0.0100   -1.2400  -53.4400   +0.0100   +0.0010
GW 319 1   -1.3400  -53.3400   +0.0100   -1.2400  -53.3400   +0.0100   +0.0010
GW 320 1   -1.3400  -53.2400   +0.0100   -1.2400  -53.2400   +0.0100   +0.0010
GW 321 1   -1.3400  -53.1400   +0.0100   -1.2400  -53.1400   +0.0100   +0.0010
GW 322 1   -1.2400  -56.1400   +0.0100   -1.1400  -56.1400   +0.0100   +0.0010
GW 323 1   -1.2400  -56.0400   +0.0100   -1.1400  -56.0400   +0.0100   +0.0010
GW 324 1   -1.2400  -55.9400   +0.0100   -1.1400  -55.9400   +0.0100   +0.0010
GW 325 1   -1.2400  -55.8400   +0.0100   -1.1400  -55.8400   +0.0100   +0.0010
GW 326 1   -1.2400  -55.7400   +0.0100   -1.1400  -55.7400   +0.0100   +0.0010
GW 327 1   -1.2400  -55.6400   +0.0100   -1.1400  -55.6400   +0.0100   +0.0010
GW 328 1   -1.2400  -55.5400   +0.0100   -1.1400  -55.5400   +0.0100   +0.0010
GW 329 1   -1.2400  -55.4400   +0.0100   -1.1400  -55.4400   +0.0100   +0.0010
GW 330 1   -1.2400  -55.3400   +0.0100   -1.1400  -55.3400   +0.0100   +0.0010
GW 331 1   -1.2400  -55.2400   +0.0100   -1.1400  -55.2400   +0.0100   +0.0010
GW 332 1   -1.2400  -55.1400   +0.0100   -1.1400  -55.1400   +0.0100   +0.0010
GW 333 1   -1.2400  -55.0400   +0.0100   -1.1400  -55.0400   +0.0100   +0.0010
GW 334 1   -1.2400  -54.9400   +0.0100   -1.1400  -54.9400   +0.0100   +0.0010
GW 335 1   -1.2400  -54.8400   +0.0100   -1.1400  -54.8400   +0.0100   +0.0010
GW 336 1   -1.2400  -54.7400   +0.0100   -1.1400  -54.7400   +0.0100   +0.0010
GW 337 1   -1.2400  -54.6400   +0.0100   -1.1400  -54.6400   +0.0100   +0.0010
GW 338 1   -1.2400  -54.5400   +0.0100   -1.1400  -54.5400   +0.0100   +0.0010
GW 339 1   -1.2400  -54.4400   +0.0100   -1.1400  -54.4400   +0.0100   +0.0010
GW 340 1   -1.2400  -54.3400   +0.0100   -1.1400  -54.3400   +0.0100   +0.0010
GW 341 1   -1.2400  -54.2400   +0.0100   -1.1400  -54.2400   +0.0100   +0.0010
GW 342 1   -1.2400  -54.1400   +0.0100   -1.1400  -54.1400   +0.0100   +0.0010
GW 343 1   -1.2400  -54.0400   +0.0100   -1.1400  -54.0400   +0.0100   +0.0010
GW 344 1   -1.2400  -53.9400   +0.0100   -1.1400  -53.9400   +0.0100   +0.0010
GW 345 1   -1.2400  -53.8400   +0.0100   -1.1400  -53.8400   +0.0100   +0.0010
GW 346 1   -1.2400  -53.7400   +0.0100   -1.1400  -53.7400   +0.0100   +0.0010
GW 347 1   -1.2400  -53.6400   +0.0100   -1.1400  -53.6400   +0.0100   +0.0010
GW 348 1   -1.2400  -53.5400   +0.0100   -1.1400  -53.5400   +0.0100   +0.0010
GW 349 1   -1.2400  -53.4400   +0.0100   -1.1400  -53.4400   +0.0100   +0.0010
GW 350 1   -1.2400  -53.3400   +0.0100   -1.1400  -53.3400   +0.0100   +0.0010
GW 351 1   -1.2400  -53.2400   +0.0100   -1.1400  -53.2400   +0.0100   +0.0010
GW 352 1   -1.2400  -53.1400   +0.0100   -1.1400  -53.1400   +0.0100   +0.0010
GW 353 1   -1.1400  -56.1400   +0.0100   -1.0400  -56.1400   +0.0100   +0.0010
GW 354 1   -1.1400  -56.0400   +0.0100   -1.0400  -56.0400   +0.0100   +0.0010
GW 355 1   -1.1400  -55.9400   +0.0100   -1.0400  -55.9400   +0.0100   +0.0010
GW 356 1   -1.1400  -55.8400   +0.0100   -1.0400  -55.8400   +0.0100   +0.0010
GW 357 1   -1.1400  -55.7400   +0.0100   -1.0400  -55.7400   +0.0100   +0.0010
GW 358 1   -1.1400  -55.6400   +0.0100   -1.0400  -55.6400   +0.0100   +0.0010
GW 359 1   -1.1400  -55.5400   +0.0100   -1.0400  -55.5400   +0.0100   +0.0010
GW 360 1   -1.1400  -55.4400   +0.0100   -1.0400  -55.4400   +0.0100   +0.0010
GW 361 1   -1.1400  -55.3400   +0.0100   -1.0400  -55.3400   +0.0100   +0.0010
GW 362 1   -1.1400  -55.2400   +0.0100   -1.0400  -55.2400   +0.0100   +0.0010
GW 363 1   -1.1400  -55.1400   +0.0100   -1.0400  -55.1400   +0.0100   +0.0010
GW 364 1   -1.1400  -55.0400   +0.0100   -1.0400  -55.0400   +0.0100   +0.0010
GW 365 1   -1.1400  -54.9400   +0.0100   -1.0400  -54.9400   +0.0100   +0.0010
GW 366 1   -1.1400  -54.8400   +0.0100   -1.0400  -54.8400   +0.0100   +0.0010
GW 367 1   -1.1400  -54.7400   +0.0100   -1.0400  -54.7400   +0.0100   +0.0010
GW 368 1   -1.1400  -54.6400   +0.0100   -1.0400  -54.6400   +0.0100   +0.0010
GW 369 1   -1.1400  -54.5400   +0.0100   -1.0400  -54.5400   +0.0100   +0.0010
GW 370 1   -1.1400  -54.4400   +0.0100   -1.0400  -54.4400   +0.0100   +0.0010
GW 371 1   -1.1400  -54.3400   +0.0100   -1.0400  -54.3400   +0.0100   +0.0010
GW 372 1   -1.1400  -54.2400   +0.0100   -1.0400  -54.2400   +0.0100   +0.0010
GW 373 1   -1.1400  -54.1400   +0.0100   -1.0400  -54.1400   +0.0100   +0.0010
GW 374 1   -1.1400  -54.0400   +0.0100   -1.0400  -54.0400   +0.0100   +0.0010
GW 375 1   -1.1400  -53.9400   +0.0100   -1.0400  -53.9400   +0.0100   +0.0010
GW 376 1   -1.1400  -53.8400   +0.0100   -1.0400  -53.8400   +0.0100   +0.0010
GW 377 1   -1.1400  -53.7400   +0.0100   -1.0400  -53.7400   +0.0100   +0.0010
GW 378 1   -1.1400  -53.6400   +0.0100   -1.0400  -53.6400   +0.0100   +0.0010
GW 379 1   -1.1400  -53.5400   +0.0100   -1.0400  -53.5400   +0.0100   +0.0010
GW 380 1   -1.1400  -53.4400   +0.0100   -1.0400  -53.4400   +0.0100   +0.0010
GW 381 1   -1.1400  -53.3400   +0.0100   -1.0400  -53.3400   +0.0100   +0.0010