CM C:\Documents and Settings\npar
CE
GW 1,1,.045,-2.980E-8,1.5,-.045,-2.980E-8,1.5,.00075
GW 2,4,.7521068,.27,.7928932,1.10566,.27,.4393399,.0125
GW 3,4,.3985534,.135,1.146447,.7521068,.135,.7928932,.0125
GW 4,4,.7521068,.135,.7928932,1.10566,.135,.4393399,.0125
GW 5,4,.045,-2.980E-8,1.5,.3985534,-2.980E-8,1.146447,.0125
GW 6,4,.3985534,-2.980E-8,1.146447,.7521068,-2.980E-8,.7928932,.0125
GW 7,4,.7521068,-2.980E-8,.7928932,1.10566,-2.980E-8,.4393399,.0125
GW 8,4,.3985534,-.135,1.146447,.7521068,-.135,.7928932,.0125
GW 9,4,.7521068,-.135,.7928932,1.10566,-.135,.4393399,.0125
GW 10,4,.7521068,-.27,.7928932,1.10566,-.27,.4393399,.0125
GW 11,1,.3985534,.135,1.146447,.3985534,-2.980E-8,1.146447,.0125
GW 12,1,.3985534,-2.980E-8,1.146447,.3985534,-.135,1.146447,.0125
GW 13,1,.7521068,.27,.7928932,.7521068,.135,.7928932,.0125
GW 14,1,.7521068,.135,.7928932,.7521068,-2.980E-8,.7928932,.0125
GW 15,1,.7521068,-2.980E-8,.7928932,.7521068,-.135,.7928932,.0125
GW 16,1,.7521068,-.135,.7928932,.7521068,-.27,.7928932,.0125
GW 17,1,1.10566,.405,.4393399,1.10566,.27,.4393399,.0125
GW 18,1,1.10566,.27,.4393399,1.10566,.135,.4393399,.0125
GW 19,1,1.10566,.135,.4393399,1.10566,-2.980E-8,.4393399,.0125
GW 20,1,1.10566,-2.980E-8,.4393399,1.10566,-.135,.4393399,.0125
GW 21,1,1.10566,-.135,.4393399,1.10566,-.27,.4393399,.0125
GW 22,1,1.10566,-.27,.4393399,1.10566,-.405,.4393399,.0125
GW 23,4,.045,-2.980E-8,1.5,.3985534,.135,1.146447,.0125
GW 24,4,.3985534,.135,1.146447,.7521068,.27,.7928932,.0125
GW 25,4,.7521068,.27,.7928932,1.10566,.405,.4393399,.0125
GW 26,4,.045,-2.980E-8,1.5,.3985534,-.135,1.146447,.0125
GW 27,4,.3985534,-.135,1.146447,.7521068,-.27,.7928932,.0125
GW 28,4,.7521068,-.27,.7928932,1.10566,-.405,.4393399,.0125
GW 29,4,-.7521068,.27,.7928932,-1.10566,.27,.4393399,.0125
GW 30,4,-.3985534,.135,1.146447,-.7521068,.135,.7928932,.0125
GW 31,4,-.7521068,.135,.7928932,-1.10566,.135,.4393399,.0125
GW 32,4,-.045,-2.980E-8,1.5,-.3985534,-2.980E-8,1.146447,.0125
GW 33,4,-.3985534,-2.980E-8,1.146447,-.7521068,-2.980E-8,.7928932,.0125
GW 34,4,-.7521068,-2.980E-8,.7928932,-1.10566,-2.980E-8,.4393399,.0125
GW 35,4,-.3985534,-.135,1.146447,-.7521068,-.135,.7928932,.0125
GW 36,4,-.7521068,-.135,.7928932,-1.10566,-.135,.4393399,.0125
GW 37,4,-.7521068,-.27,.7928932,-1.10566,-.27,.4393399,.0125
GW 38,1,-.3985534,.135,1.146447,-.3985534,-2.980E-8,1.146447,.0125
GW 39,1,-.3985534,-2.980E-8,1.146447,-.3985534,-.135,1.146447,.0125
GW 40,1,-.7521068,.27,.7928932,-.7521068,.135,.7928932,.0125
GW 41,1,-.7521068,.135,.7928932,-.7521068,-2.980E-8,.7928932,.0125
GW 42,1,-.7521068,-2.980E-8,.7928932,-.7521068,-.135,.7928932,.0125
GW 43,1,-.7521068,-.135,.7928932,-.7521068,-.27,.7928932,.0125
GW 44,1,-1.10566,.405,.4393399,-1.10566,.27,.4393399,.0125
GW 45,1,-1.10566,.27,.4393399,-1.10566,.135,.4393399,.0125
GW 46,1,-1.10566,.135,.4393399,-1.10566,-2.980E-8,.4393399,.0125
GW 47,1,-1.10566,-2.980E-8,.4393399,-1.10566,-.135,.4393399,.0125
GW 48,1,-1.10566,-.135,.4393399,-1.10566,-.27,.4393399,.0125
GW 49,1,-1.10566,-.27,.4393399,-1.10566,-.405,.4393399,.0125
GW 50,4,-.045,-2.980E-8,1.5,-.3985534,.135,1.146447,.0125
GW 51,4,-.3985534,.135,1.146447,-.7521068,.27,.7928932,.0125
GW 52,4,-.7521068,.27,.7928932,-1.10566,.405,.4393399,.0125
GW 53,4,-.045,-2.980E-8,1.5,-.3985534,-.135,1.146447,.0125
GW 54,4,-.3985534,-.135,1.146447,-.7521068,-.27,.7928932,.0125
GW 55,4,-.7521068,-.27,.7928932,-1.10566,-.405,.4393399,.0125
GW 56,1,-1.5,1.5,-.05,-1.227273,1.5,-.05,.0477135
GW 57,1,-1.227273,1.5,-.05,-.9545455,1.5,-.05,.0477135
GW 58,1,-.9545455,1.5,-.05,-.6818182,1.5,-.05,.0477135
GW 59,1,-.6818182,1.5,-.05,-.409091,1.5,-.05,.0477135
GW 60,1,-.409091,1.5,-.05,-.1363637,1.5,-.05,.0477135
GW 61,1,-.1363637,1.5,-.05,.1363636,1.5,-.05,.0477135
GW 62,1,.1363636,1.5,-.05,.4090909,1.5,-.05,.0477135
GW 63,1,.4090909,1.5,-.05,.6818181,1.5,-.05,.0477135
GW 64,1,.6818181,1.5,-.05,.9545454,1.5,-.05,.0477135
GW 65,1,.9545454,1.5,-.05,1.227273,1.5,-.05,.0477135
GW 66,1,1.227273,1.5,-.05,1.5,1.5,-.05,.0477135
GW 67,1,-1.5,1.227273,-.05,-1.227273,1.227273,-.05,.0477135
GW 68,1,-1.227273,1.227273,-.05,-.9545455,1.227273,-.05,.0477135
GW 69,1,-.9545455,1.227273,-.05,-.6818182,1.227273,-.05,.0477135
GW 70,1,-.6818182,1.227273,-.05,-.409091,1.227273,-.05,.0477135
GW 71,1,-.409091,1.227273,-.05,-.1363637,1.227273,-.05,.0477135
GW 72,1,-.1363637,1.227273,-.05,.1363636,1.227273,-.05,.0477135
GW 73,1,.1363636,1.227273,-.05,.4090909,1.227273,-.05,.0477135
GW 74,1,.4090909,1.227273,-.05,.6818181,1.227273,-.05,.0477135
GW 75,1,.6818181,1.227273,-.05,.9545454,1.227273,-.05,.0477135
GW 76,1,.9545454,1.227273,-.05,1.227273,1.227273,-.05,.0477135
GW 77,1,1.227273,1.227273,-.05,1.5,1.227273,-.05,.0477135
GW 78,1,-1.5,.9545455,-.05,-1.227273,.9545455,-.05,.0477135
GW 79,1,-1.227273,.9545455,-.05,-.9545455,.9545455,-.05,.0477135
GW 80,1,-.9545455,.9545455,-.05,-.6818182,.9545455,-.05,.0477135
GW 81,1,-.6818182,.9545455,-.05,-.409091,.9545455,-.05,.0477135
GW 82,1,-.409091,.9545455,-.05,-.1363637,.9545455,-.05,.0477135
GW 83,1,-.1363637,.9545455,-.05,.1363636,.9545455,-.05,.0477135
GW 84,1,.1363636,.9545455,-.05,.4090909,.9545455,-.05,.0477135
GW 85,1,.4090909,.9545455,-.05,.6818181,.9545455,-.05,.0477135
GW 86,1,.6818181,.9545455,-.05,.9545454,.9545455,-.05,.0477135
GW 87,1,.9545454,.9545455,-.05,1.227273,.9545455,-.05,.0477135
GW 88,1,1.227273,.9545455,-.05,1.5,.9545455,-.05,.0477135
GW 89,1,-1.5,.6818182,-.05,-1.227273,.6818182,-.05,.0477135
GW 90,1,-1.227273,.6818182,-.05,-.9545455,.6818182,-.05,.0477135
GW 91,1,-.9545455,.6818182,-.05,-.6818182,.6818182,-.05,.0477135
GW 92,1,-.6818182,.6818182,-.05,-.409091,.6818182,-.05,.0477135
GW 93,1,-.409091,.6818182,-.05,-.1363637,.6818182,-.05,.0477135
GW 94,1,-.1363637,.6818182,-.05,.1363636,.6818182,-.05,.0477135
GW 95,1,.1363636,.6818182,-.05,.4090909,.6818182,-.05,.0477135
GW 96,1,.4090909,.6818182,-.05,.6818181,.6818182,-.05,.0477135
GW 97,1,.6818181,.6818182,-.05,.9545454,.6818182,-.05,.0477135
GW 98,1,.9545454,.6818182,-.05,1.227273,.6818182,-.05,.0477135
GW 99,1,1.227273,.6818182,-.05,1.5,.6818182,-.05,.0477135
GW 100,1,-1.5,.409091,-.05,-1.227273,.409091,-.05,.0477135
GW 101,1,-1.227273,.409091,-.05,-.9545455,.409091,-.05,.0477135
GW 102,1,-.9545455,.409091,-.05,-.6818182,.409091,-.05,.0477135
GW 103,1,-.6818182,.409091,-.05,-.409091,.409091,-.05,.0477135
GW 104,1,-.409091,.409091,-.05,-.1363637,.409091,-.05,.0477135
GW 105,1,-.1363637,.409091,-.05,.1363636,.409091,-.05,.0477135
GW 106,1,.1363636,.409091,-.05,.4090909,.409091,-.05,.0477135
GW 107,1,.4090909,.409091,-.05,.6818181,.409091,-.05,.0477135
GW 108,1,.6818181,.409091,-.05,.9545454,.409091,-.05,.0477135
GW 109,1,.9545454,.409091,-.05,1.227273,.409091,-.05,.0477135
GW 110,1,1.227273,.409091,-.05,1.5,.409091,-.05,.0477135
GW 111,1,-1.5,.1363637,-.05,-1.227273,.1363637,-.05,.0477135
GW 112,1,-1.227273,.1363637,-.05,-.9545455,.1363637,-.05,.0477135
GW 113,1,-.9545455,.1363637,-.05,-.6818182,.1363637,-.05,.0477135
GW 114,1,-.6818182,.1363637,-.05,-.409091,.1363637,-.05,.0477135
GW 115,1,-.409091,.1363637,-.05,-.1363637,.1363637,-.05,.0477135
GW 116,1,-.1363637,.1363637,-.05,.1363636,.1363637,-.05,.0477135
GW 117,1,.1363636,.1363637,-.05,.4090909,.1363637,-.05,.0477135
GW 118,1,.4090909,.1363637,-.05,.6818181,.1363637,-.05,.0477135
GW 119,1,.6818181,.1363637,-.05,.9545454,.1363637,-.05,.0477135
GW 120,1,.9545454,.1363637,-.05,1.227273,.1363637,-.05,.0477135
GW 121,1,1.227273,.1363637,-.05,1.5,.1363637,-.05,.0477135
GW 122,1,-1.5,-.1363636,-.05,-1.227273,-.1363636,-.05,.0477135
GW 123,1,-1.227273,-.1363636,-.05,-.9545455,-.1363636,-.05,.0477135
GW 124,1,-.9545455,-.1363636,-.05,-.6818182,-.1363636,-.05,.0477135
GW 125,1,-.6818182,-.1363636,-.05,-.409091,-.1363636,-.05,.0477135
GW 126,1,-.409091,-.1363636,-.05,-.1363637,-.1363636,-.05,.0477135
GW 127,1,-.1363637,-.1363636,-.05,.1363636,-.1363636,-.05,.0477135
GW 128,1,.1363636,-.1363636,-.05,.4090909,-.1363636,-.05,.0477135
GW 129,1,.4090909,-.1363636,-.05,.6818181,-.1363636,-.05,.0477135
GW 130,1,.6818181,-.1363636,-.05,.9545454,-.1363636,-.05,.0477135
GW 131,1,.9545454,-.1363636,-.05,1.227273,-.1363636,-.05,.0477135
GW 132,1,1.227273,-.1363636,-.05,1.5,-.1363636,-.05,.0477135
GW 133,1,-1.5,-.4090909,-.05,-1.227273,-.4090909,-.05,.0477135
GW 134,1,-1.227273,-.4090909,-.05,-.9545455,-.4090909,-.05,.0477135
GW 135,1,-.9545455,-.4090909,-.05,-.6818182,-.4090909,-.05,.0477135
GW 136,1,-.6818182,-.4090909,-.05,-.409091,-.4090909,-.05,.0477135
GW 137,1,-.409091,-.4090909,-.05,-.1363637,-.4090909,-.05,.0477135
GW 138,1,-.1363637,-.4090909,-.05,.1363636,-.4090909,-.05,.0477135
GW 139,1,.1363636,-.4090909,-.05,.4090909,-.4090909,-.05,.0477135
GW 140,1,.4090909,-.4090909,-.05,.6818181,-.4090909,-.05,.0477135
GW 141,1,.6818181,-.4090909,-.05,.9545454,-.4090909,-.05,.0477135
GW 142,1,.9545454,-.4090909,-.05,1.227273,-.4090909,-.05,.0477135
GW 143,1,1.227273,-.4090909,-.05,1.5,-.4090909,-.05,.0477135
GW 144,1,-1.5,-.6818181,-.05,-1.227273,-.6818181,-.05,.0477135
GW 145,1,-1.227273,-.6818181,-.05,-.9545455,-.6818181,-.05,.0477135
GW 146,1,-.9545455,-.6818181,-.05,-.6818182,-.6818181,-.05,.0477135
GW 147,1,-.6818182,-.6818181,-.05,-.409091,-.6818181,-.05,.0477135
GW 148,1,-.409091,-.6818181,-.05,-.1363637,-.6818181,-.05,.0477135
GW 149,1,-.1363637,-.6818181,-.05,.1363636,-.6818181,-.05,.0477135
GW 150,1,.1363636,-.6818181,-.05,.4090909,-.6818181,-.05,.0477135
GW 151,1,.4090909,-.6818181,-.05,.6818181,-.6818181,-.05,.0477135
GW 152,1,.6818181,-.6818181,-.05,.9545454,-.6818181,-.05,.0477135
GW 153,1,.9545454,-.6818181,-.05,1.227273,-.6818181,-.05,.0477135
GW 154,1,1.227273,-.6818181,-.05,1.5,-.6818181,-.05,.0477135
GW 155,1,-1.5,-.9545454,-.05,-1.227273,-.9545454,-.05,.0477135
GW 156,1,-1.227273,-.9545454,-.05,-.9545455,-.9545454,-.05,.0477135
GW 157,1,-.9545455,-.9545454,-.05,-.6818182,-.9545454,-.05,.0477135
GW 158,1,-.6818182,-.9545454,-.05,-.409091,-.9545454,-.05,.0477135
GW 159,1,-.409091,-.9545454,-.05,-.1363637,-.9545454,-.05,.0477135
GW 160,1,-.1363637,-.9545454,-.05,.1363636,-.9545454,-.05,.0477135
GW 161,1,.1363636,-.9545454,-.05,.4090909,-.9545454,-.05,.0477135
GW 162,1,.4090909,-.9545454,-.05,.6818181,-.9545454,-.05,.0477135
GW 163,1,.6818181,-.9545454,-.05,.9545454,-.9545454,-.05,.0477135
GW 164,1,.9545454,-.9545454,-.05,1.227273,-.9545454,-.05,.0477135
GW 165,1,1.227273,-.9545454,-.05,1.5,-.9545454,-.05,.0477135
GW 166,1,-1.5,-1.227273,-.05,-1.227273,-1.227273,-.05,.0477135
GW 167,1,-1.227273,-1.227273,-.05,-.9545455,-1.227273,-.05,.0477135
GW 168,1,-.9545455,-1.227273,-.05,-.6818182,-1.227273,-.05,.0477135
GW 169,1,-.6818182,-1.227273,-.05,-.409091,-1.227273,-.05,.0477135
GW 170,1,-.409091,-1.227273,-.05,-.1363637,-1.227273,-.05,.0477135
GW 171,1,-.1363637,-1.227273,-.05,.1363636,-1.227273,-.05,.0477135
GW 172,1,.1363636,-1.227273,-.05,.4090909,-1.227273,-.05,.0477135
GW 173,1,.4090909,-1.227273,-.05,.6818181,-1.227273,-.05,.0477135
GW 174,1,.6818181,-1.227273,-.05,.9545454,-1.227273,-.05,.0477135
GW 175,1,.9545454,-1.227273,-.05,1.227273,-1.227273,-.05,.0477135
GW 176,1,1.227273,-1.227273,-.05,1.5,-1.227273,-.05,.0477135
GW 177,1,-1.5,-1.5,-.05,-1.227273,-1.5,-.05,.0477135
GW 178,1,-1.227273,-1.5,-.05,-.9545455,-1.5,-.05,.0477135
GW 179,1,-.9545455,-1.5,-.05,-.6818182,-1.5,-.05,.0477135
GW 180,1,-.6818182,-1.5,-.05,-.409091,-1.5,-.05,.0477135
GW 181,1,-.409091,-1.5,-.05,-.1363637,-1.5,-.05,.0477135
GW 182,1,-.1363637,-1.5,-.05,.1363636,-1.5,-.05,.0477135
GW 183,1,.1363636,-1.5,-.05,.4090909,-1.5,-.05,.0477135
GW 184,1,.4090909,-1.5,-.05,.6818181,-1.5,-.05,.0477135
GW 185,1,.6818181,-1.5,-.05,.9545454,-1.5,-.05,.0477135
GW 186,1,.9545454,-1.5,-.05,1.227273,-1.5,-.05,.0477135
GW 187,1,1.227273,-1.5,-.05,1.5,-1.5,-.05,.0477135
GW 188,1,-1.5,1.5,-.05,-1.5,1.227273,-.05,.0477135
GW 189,1,-1.5,1.227273,-.05,-1.5,.9545455,-.05,.0477135
GW 190,1,-1.5,.9545455,-.05,-1.5,.6818182,-.05,.0477135
GW 191,1,-1.5,.6818182,-.05,-1.5,.409091,-.05,.0477135
GW 192,1,-1.5,.409091,-.05,-1.5,.1363637,-.05,.0477135
GW 193,1,-1.5,.1363637,-.05,-1.5,-.1363636,-.05,.0477135
GW 194,1,-1.5,-.1363636,-.05,-1.5,-.4090909,-.05,.0477135
GW 195,1,-1.5,-.4090909,-.05,-1.5,-.6818181,-.05,.0477135
GW 196,1,-1.5,-.6818181,-.05,-1.5,-.9545454,-.05,.0477135
GW 197,1,-1.5,-.9545454,-.05,-1.5,-1.227273,-.05,.0477135
GW 198,1,-1.5,-1.227273,-.05,-1.5,-1.5,-.05,.0477135
GW 199,1,-1.227273,1.5,-.05,-1.227273,1.227273,-.05,.0477135
GW 200,1,-1.227273,1.227273,-.05,-1.227273,.9545455,-.05,.0477135
GW 201,1,-1.227273,.9545455,-.05,-1.227273,.6818182,-.05,.0477135
GW 202,1,-1.227273,.6818182,-.05,-1.227273,.409091,-.05,.0477135
GW 203,1,-1.227273,.409091,-.05,-1.227273,.1363637,-.05,.0477135
GW 204,1,-1.227273,.1363637,-.05,-1.227273,-.1363636,-.05,.0477135
GW 205,1,-1.227273,-.1363636,-.05,-1.227273,-.4090909,-.05,.0477135
GW 206,1,-1.227273,-.4090909,-.05,-1.227273,-.6818181,-.05,.0477135
GW 207,1,-1.227273,-.6818181,-.05,-1.227273,-.9545454,-.05,.0477135
GW 208,1,-1.227273,-.9545454,-.05,-1.227273,-1.227273,-.05,.0477135
GW 209,1,-1.227273,-1.227273,-.05,-1.227273,-1.5,-.05,.0477135
GW 210,1,-.9545455,1.5,-.05,-.9545455,1.227273,-.05,.0477135
GW 211,1,-.9545455,1.227273,-.05,-.9545455,.9545455,-.05,.0477135
GW 212,1,-.9545455,.9545455,-.05,-.9545455,.6818182,-.05,.0477135
GW 213,1,-.9545455,.6818182,-.05,-.9545455,.409091,-.05,.0477135
GW 214,1,-.9545455,.409091,-.05,-.9545455,.1363637,-.05,.0477135
GW 215,1,-.9545455,.1363637,-.05,-.9545455,-.1363636,-.05,.0477135
GW 216,1,-.9545455,-.1363636,-.05,-.9545455,-.4090909,-.05,.0477135
GW 217,1,-.9545455,-.4090909,-.05,-.9545455,-.6818181,-.05,.0477135
GW 218,1,-.9545455,-.6818181,-.05,-.9545455,-.9545454,-.05,.0477135
GW 219,1,-.9545455,-.9545454,-.05,-.9545455,-1.227273,-.05,.0477135
GW 220,1,-.9545455,-1.227273,-.05,-.9545455,-1.5,-.05,.0477135
GW 221,1,-.6818182,1.5,-.05,-.6818182,1.227273,-.05,.0477135
GW 222,1,-.6818182,1.227273,-.05,-.6818182,.9545455,-.05,.0477135
GW 223,1,-.6818182,.9545455,-.05,-.6818182,.6818182,-.05,.0477135
GW 224,1,-.6818182,.6818182,-.05,-.6818182,.409091,-.05,.0477135
GW 225,1,-.6818182,.409091,-.05,-.6818182,.1363637,-.05,.0477135
GW 226,1,-.6818182,.1363637,-.05,-.6818182,-.1363636,-.05,.0477135
GW 227,1,-.6818182,-.1363636,-.05,-.6818182,-.4090909,-.05,.0477135
GW 228,1,-.6818182,-.4090909,-.05,-.6818182,-.6818181,-.05,.0477135
GW 229,1,-.6818182,-.6818181,-.05,-.6818182,-.9545454,-.05,.0477135
GW 230,1,-.6818182,-.9545454,-.05,-.6818182,-1.227273,-.05,.0477135
GW 231,1,-.6818182,-1.227273,-.05,-.6818182,-1.5,-.05,.0477135
GW 232,1,-.409091,1.5,-.05,-.409091,1.227273,-.05,.0477135
GW 233,1,-.409091,1.227273,-.05,-.409091,.9545455,-.05,.0477135
GW 234,1,-.409091,.9545455,-.05,-.409091,.6818182,-.05,.0477135
GW 235,1,-.409091,.6818182,-.05,-.409091,.409091,-.05,.0477135
GW 236,1,-.409091,.409091,-.05,-.409091,.1363637,-.05,.0477135
GW 237,1,-.409091,.1363637,-.05,-.409091,-.1363636,-.05,.0477135
GW 238,1,-.409091,-.1363636,-.05,-.409091,-.4090909,-.05,.0477135
GW 239,1,-.409091,-.4090909,-.05,-.409091,-.6818181,-.05,.0477135
GW 240,1,-.409091,-.6818181,-.05,-.409091,-.9545454,-.05,.0477135
GW 241,1,-.409091,-.9545454,-.05,-.409091,-1.227273,-.05,.0477135
GW 242,1,-.409091,-1.227273,-.05,-.409091,-1.5,-.05,.0477135
GW 243,1,-.1363637,1.5,-.05,-.1363637,1.227273,-.05,.0477135
GW 244,1,-.1363637,1.227273,-.05,-.1363637,.9545455,-.05,.0477135
GW 245,1,-.1363637,.9545455,-.05,-.1363637,.6818182,-.05,.0477135
GW 246,1,-.1363637,.6818182,-.05,-.1363637,.409091,-.05,.0477135
GW 247,1,-.1363637,.409091,-.05,-.1363637,.1363637,-.05,.0477135
GW 248,1,-.1363637,.1363637,-.05,-.1363637,-.1363636,-.05,.0477135
GW 249,1,-.1363637,-.1363636,-.05,-.1363637,-.4090909,-.05,.0477135
GW 250,1,-.1363637,-.4090909,-.05,-.1363637,-.6818181,-.05,.0477135
GW 251,1,-.1363637,-.6818181,-.05,-.1363637,-.9545454,-.05,.0477135
GW 252,1,-.1363637,-.9545454,-.05,-.1363637,-1.227273,-.05,.0477135
GW 253,1,-.1363637,-1.227273,-.05,-.1363637,-1.5,-.05,.0477135
GW 254,1,.1363636,1.5,-.05,.1363636,1.227273,-.05,.0477135
GW 255,1,.1363636,1.227273,-.05,.1363636,.9545455,-.05,.0477135
GW 256,1,.1363636,.9545455,-.05,.1363636,.6818182,-.05,.0477135
GW 257,1,.1363636,.6818182,-.05,.1363636,.409091,-.05,.0477135
GW 258,1,.1363636,.409091,-.05,.1363636,.1363637,-.05,.0477135
GW 259,1,.1363636,.1363637,-.05,.1363636,-.1363636,-.05,.0477135
GW 260,1,.1363636,-.1363636,-.05,.1363636,-.4090909,-.05,.0477135
GW 261,1,.1363636,-.4090909,-.05,.1363636,-.6818181,-.05,.0477135
GW 262,1,.1363636,-.6818181,-.05,.1363636,-.9545454,-.05,.0477135
GW 263,1,.1363636,-.9545454,-.05,.1363636,-1.227273,-.05,.0477135
GW 264,1,.1363636,-1.227273,-.05,.1363636,-1.5,-.05,.0477135
GW 265,1,.4090909,1.5,-.05,.4090909,1.227273,-.05,.0477135
GW 266,1,.4090909,1.227273,-.05,.4090909,.9545455,-.05,.0477135
GW 267,1,.4090909,.9545455,-.05,.4090909,.6818182,-.05,.0477135
GW 268,1,.4090909,.6818182,-.05,.4090909,.409091,-.05,.0477135
GW 269,1,.4090909,.409091,-.05,.4090909,.1363637,-.05,.0477135
GW 270,1,.4090909,.1363637,-.05,.4090909,-.1363636,-.05,.0477135
GW 271,1,.4090909,-.1363636,-.05,.4090909,-.4090909,-.05,.0477135
GW 272,1,.4090909,-.4090909,-.05,.4090909,-.6818181,-.05,.0477135
GW 273,1,.4090909,-.6818181,-.05,.4090909,-.9545454,-.05,.0477135
GW 274,1,.4090909,-.9545454,-.05,.4090909,-1.227273,-.05,.0477135
GW 275,1,.4090909,-1.227273,-.05,.4090909,-1.5,-.05,.0477135
GW 276,1,.6818181,1.5,-.05,.6818181,1.227273,-.05,.0477135
GW 277,1,.6818181,1.227273,-.05,.6818181,.9545455,-.05,.0477135
GW 278,1,.6818181,.9545455,-.05,.6818181,.6818182,-.05,.0477135
GW 279,1,.6818181,.6818182,-.05,.6818181,.409091,-.05,.0477135
GW 280,1,.6818181,.409091,-.05,.6818181,.1363637,-.05,.0477135
GW 281,1,.6818181,.1363637,-.05,.6818181,-.1363636,-.05,.0477135
GW 282,1,.6818181,-.1363636,-.05,.6818181,-.4090909,-.05,.0477135
GW 283,1,.6818181,-.4090909,-.05,.6818181,-.6818181,-.05,.0477135
GW 284,1,.6818181,-.6818181,-.05,.6818181,-.9545454,-.05,.0477135
GW 285,1,.6818181,-.9545454,-.05,.6818181,-1.227273,-.05,.0477135
GW 286,1,.6818181,-1.227273,-.05,.6818181,-1.5,-.05,.0477135
GW 287,1,.9545454,1.5,-.05,.9545454,1.227273,-.05,.0477135
GW 288,1,.9545454,1.227273,-.05,.9545454,.9545455,-.05,.0477135
GW 289,1,.9545454,.9545455,-.05,.9545454,.6818182,-.05,.0477135
GW 290,1,.9545454,.6818182,-.05,.9545454,.409091,-.05,.0477135
GW 291,1,.9545454,.409091,-.05,.9545454,.1363637,-.05,.0477135
GW 292,1,.9545454,.1363637,-.05,.9545454,-.1363636,-.05,.0477135
GW 293,1,.9545454,-.1363636,-.05,.9545454,-.4090909,-.05,.0477135
GW 294,1,.9545454,-.4090909,-.05,.9545454,-.6818181,-.05,.0477135
GW 295,1,.9545454,-.6818181,-.05,.9545454,-.9545454,-.05,.0477135
GW 296,1,.9545454,-.9545454,-.05,.9545454,-1.227273,-.05,.0477135
GW 297,1,.9545454,-1.227273,-.05,.9545454,-1.5,-.05,.0477135
GW 298,1,1.227273,1.5,-.05,1.227273,1.227273,-.05,.0477135
GW 299,1,1.227273,1.227273,-.05,1.227273,.9545455,-.05,.0477135
GW 300,1,1.227273,.9545455,-.05,1.227273,.6818182,-.05,.0477135
GW 301,1,1.227273,.6818182,-.05,1.227273,.409091,-.05,.0477135
GW 302,1,1.227273,.409091,-.05,1.227273,.1363637,-.05,.0477135
GW 303,1,1.227273,.1363637,-.05,1.227273,-.1363636,-.05,.0477135
GW 304,1,1.227273,-.1363636,-.05,1.227273,-.4090909,-.05,.0477135
GW 305,1,1.227273,-.4090909,-.05,1.227273,-.6818181,-.05,.0477135
GW 306,1,1.227273,-.6818181,-.05,1.227273,-.9545454,-.05,.0477135
GW 307,1,1.227273,-.9545454,-.05,1.227273,-1.227273,-.05,.0477135
GW 308,1,1.227273,-1.227273,-.05,1.227273,-1.5,-.05,.0477135
GW 309,1,1.5,1.5,-.05,1.5,1.227273,-.05,.0477135
GW 310,1,1.5,1.227273,-.05,1.5,.9545455,-.05,.0477135
GW 311,1,1.5,.9545455,-.05,1.5,.6818182,-.05,.0477135
GW 312,1,1.5,.6818182,-.05,1.5,.409091,-.05,.0477135
GW 313,1,1.5,.409091,-.05,1.5,.1363637,-.05,.0477135
GW 314,1,1.5,.1363637,-.05,1.5,-.1363636,-.05,.0477135
GW 315,1,1.5,-.1363636,-.05,1.5,-.4090909,-.05,.0477135
GW 316,1,1.5,-.4090909,-.05,1.5,-.6818181,-.05,.0477135
GW 317,1,1.5,-.6818181,-.05,1.5,-.9545454,-.05,.0477135
GW 318,1,1.5,-.9545454,-.05,1.5,-1.227273,-.05,.0477135
GW 319,1,1.5,-1.227273,-.05,1.5,-1.5,-.05,.0477135
GE -1
LD 0,1,1,1,2.3983E-2,1.659E-10,0.
FR 0 1 0 0 89.00 1
GN 2,0,0,0,13.,.005
EX 0,1,1,0,70.7107,0.
RP 0,91,360,1001,0.,0.,1.0,1.0,0.
EN
